
This summary file was generated by TurbSim (v1.50, 25-Sep-2009) on 21-Dec-2023 at 18:44:17.


Runtime Options:

   2318573  Random seed #1
    RANLUX  Type of random number generator
         F  Output binary HH turbulence parameters?
         F  Output formatted turbulence parameters?
         F  Output AeroDyn HH files?
         T  Output AeroDyn FF files?
         F  Output BLADED FF files?
         F  Output tower data?
         F  Output formatted FF files?
         F  Output coherent turbulence time step file?
         T  Clockwise rotation when looking downwind?
 0 -  NONE  IEC turbulence models scaled to exact specified standard deviation


Turbine/Model Specifications:

        31  Vertical grid-point matrix dimension
        31  Horizontal grid-point matrix dimension
     0.005  Time step [seconds]
  1000.000  Analysis time [seconds]
   100.000  Usable output time [seconds]
    84.288  Hub height [m]
   100.000  Grid height [m]
    90.000  Grid width [m]
     0.000  Vertical flow angle [degrees]
     0.000  Horizontal flow angle [degrees]


Meteorological Boundary Conditions:

    IECKAI  IEC Kaimal spectral model
         1  IEC standard: IEC 61400-1 Ed. 3: 2005
         A  IEC turbulence characteristic
       NTM  IEC Normal Turbulence Model
       N/A  IEC Extreme Turbulence Model (ETM) "c" parameter [m/s]
       IEC  Wind profile type
    84.288  Reference height [m]
     8.000  Reference wind speed [m/s]
       N/A  Jet height [m]
     0.200  Power law exponent
     0.030  Surface roughness length [m]


You have requested that the following file(s) be generated:

   turbsim.bts (AeroDyn/TurbSim full-field wind file)


Turbulence Simulation Scaling Parameter Summary:

   Turbulence model used                            =  IEC Kaimal
   Turbulence characteristic                        =  A
   IEC turbulence type                              =  Normal Turbulence Model
   IEC standard                                     =  IEC 61400-1 Ed. 3: 2005
   Mean wind speed at hub height                    =    8.000 m/s
   Expected value of turbulence intensity at 15 m/s =   16.000%
   Characteristic value of standard deviation       =    1.856 m/s
   Turbulence scale                                 =   42.000 m
   u-component integral scale                       =  340.200 m
   Coherency scale                                  =  340.200 m
   Characteristic value of hub turbulence intensity =   23.200%
   Gradient Richardson number                       =    0.000

   Wind profile type                                =  Power law on rotor disk, logarithmic elsewhere
   Power law exponent                               =    0.200
   Mean shear across rotor disk                     =    0.021 (m/s)/m
   Assumed rotor diameter                           =   90.000 m
   Surface roughness length                         =    0.030 m

   Number of time steps in the FFT                  =   200192
   Number of time steps output                      =    22251


Mean Flow Angles:

   Vertical   =   0.0 degrees
   Horizontal =   0.0 degrees

Mean Wind Speed Profile:

   Height    Wind Speed   Horizontal Angle  U-comp (X)   V-comp (Y)   W-comp (Z)
     (m)        (m/s)         (degrees)       (m/s)        (m/s)        (m/s)   
   ------    ----------   ----------------  ----------   ----------   ----------
    129.3        8.71            0.00          8.71         0.00         0.00
    126.0        8.67            0.00          8.67         0.00         0.00
    122.6        8.62            0.00          8.62         0.00         0.00
    119.3        8.58            0.00          8.58         0.00         0.00
    116.0        8.53            0.00          8.53         0.00         0.00
    112.6        8.48            0.00          8.48         0.00         0.00
    109.3        8.43            0.00          8.43         0.00         0.00
    106.0        8.37            0.00          8.37         0.00         0.00
    102.6        8.32            0.00          8.32         0.00         0.00
     99.3        8.27            0.00          8.27         0.00         0.00
     96.0        8.21            0.00          8.21         0.00         0.00
     92.6        8.15            0.00          8.15         0.00         0.00
     89.3        8.09            0.00          8.09         0.00         0.00
     86.0        8.03            0.00          8.03         0.00         0.00
     84.3        8.00            0.00          8.00         0.00         0.00
     82.6        7.97            0.00          7.97         0.00         0.00
     79.3        7.90            0.00          7.90         0.00         0.00
     76.0        7.84            0.00          7.84         0.00         0.00
     72.6        7.77            0.00          7.77         0.00         0.00
     69.3        7.69            0.00          7.69         0.00         0.00
     66.0        7.62            0.00          7.62         0.00         0.00
     62.6        7.54            0.00          7.54         0.00         0.00
     59.3        7.46            0.00          7.46         0.00         0.00
     56.0        7.37            0.00          7.37         0.00         0.00
     52.6        7.28            0.00          7.28         0.00         0.00
     49.3        7.19            0.00          7.19         0.00         0.00
     46.0        7.09            0.00          7.09         0.00         0.00
     42.6        6.98            0.00          6.98         0.00         0.00
     39.3        6.87            0.00          6.87         0.00         0.00
     36.0        7.14            0.00          7.14         0.00         0.00
     32.6        7.04            0.00          7.04         0.00         0.00
     29.3        6.94            0.00          6.94         0.00         0.00

ERROR:  Error allocating 1 MB for the random-number array.

ABORTING PROGRAM.
