
This summary file was generated by TurbSim (v1.50, 25-Sep-2009) on 19-Dec-2023 at 16:37:58.


Runtime Options:

   2318573  Random seed #1
    RANLUX  Type of random number generator
         F  Output binary HH turbulence parameters?
         F  Output formatted turbulence parameters?
         F  Output AeroDyn HH files?
         T  Output AeroDyn FF files?
         F  Output BLADED FF files?
         F  Output tower data?
         F  Output formatted FF files?
         F  Output coherent turbulence time step file?
         T  Clockwise rotation when looking downwind?
 0 -  NONE  IEC turbulence models scaled to exact specified standard deviation


Turbine/Model Specifications:

        31  Vertical grid-point matrix dimension
        31  Horizontal grid-point matrix dimension
     0.050  Time step [seconds]
   600.000  Analysis time [seconds]
   100.000  Usable output time [seconds]
    84.288  Hub height [m]
   100.000  Grid height [m]
    90.000  Grid width [m]
     0.000  Vertical flow angle [degrees]
     0.000  Horizontal flow angle [degrees]


Meteorological Boundary Conditions:

    SMOOTH  RISO Smooth Terrain spectral model
       N/A  IEC standard
       N/A  IEC turbulence characteristic
       N/A  IEC turbulence type
       N/A  IEC Extreme Turbulence Model (ETM) "c" parameter [m/s]
       IEC  Wind profile type
    84.288  Reference height [m]
     8.000  Reference wind speed [m/s]
       N/A  Jet height [m]
     0.143  Power law exponent
     0.010  Surface roughness length [m]


Non-IEC Meteorological Boundary Conditions:

    45.000  Site latitude [degrees]
     0.050  Gradient Richardson number
     0.341  Friction or shear velocity [m/s]
       N/A  Mixing layer depth [m]
    -0.117  Mean hub u'w' Reynolds stress
       N/A  Mean hub u'v' Reynolds stress
       N/A  Mean hub v'w' Reynolds stress
(    8.000,  0.00    )  u-component coherence parameters
(    6.000,  0.00    )  v-component coherence parameters
(    6.000,  0.00    )  w-component coherence parameters
     0.000  Coherence exponent


You have requested that the following file(s) be generated:

   C:\Users\manip\Documents\Projet-Integrateur_Ferrand-Vialle\Tools\Turbsim\TurbSim.bts (AeroDyn/TurbSim full-field wind file)


Turbulence Simulation Scaling Parameter Summary:

   Turbulence model used                            =  RISO Smooth Terrain
   Gradient Richardson number                       =    0.050
   Monin-Obukhov (M-O) z/L parameter                =    0.067
   Monin-Obukhov (M-O) length scale                 = 1264.314 m
   Mean wind speed at hub height                    =    8.000 m/s

   Wind profile type                                =  Power law on rotor disk, logarithmic elsewhere
   Power law exponent                               =    0.143
   Mean shear across rotor disk                     =    0.015 (m/s)/m
   Assumed rotor diameter                           =   90.000 m
   Surface roughness length                         =    0.010 m

   Number of time steps in the FFT                  =    12000
   Number of time steps output                      =     2225


Mean Flow Angles:

   Vertical   =   0.0 degrees
   Horizontal =   0.0 degrees

Mean Wind Speed Profile:

   Height    Wind Speed   Horizontal Angle  U-comp (X)   V-comp (Y)   W-comp (Z)
     (m)        (m/s)         (degrees)       (m/s)        (m/s)        (m/s)   
   ------    ----------   ----------------  ----------   ----------   ----------
    129.3        8.50            0.00          8.50         0.00         0.00
    126.0        8.47            0.00          8.47         0.00         0.00
    122.6        8.44            0.00          8.44         0.00         0.00
    119.3        8.41            0.00          8.41         0.00         0.00
    116.0        8.37            0.00          8.37         0.00         0.00
    112.6        8.34            0.00          8.34         0.00         0.00
    109.3        8.30            0.00          8.30         0.00         0.00
    106.0        8.27            0.00          8.27         0.00         0.00
    102.6        8.23            0.00          8.23         0.00         0.00
     99.3        8.19            0.00          8.19         0.00         0.00
     96.0        8.15            0.00          8.15         0.00         0.00
     92.6        8.11            0.00          8.11         0.00         0.00
     89.3        8.07            0.00          8.07         0.00         0.00
     86.0        8.02            0.00          8.02         0.00         0.00
     84.3        8.00            0.00          8.00         0.00         0.00
     82.6        7.98            0.00          7.98         0.00         0.00
     79.3        7.93            0.00          7.93         0.00         0.00
     76.0        7.88            0.00          7.88         0.00         0.00
     72.6        7.83            0.00          7.83         0.00         0.00
     69.3        7.78            0.00          7.78         0.00         0.00
     66.0        7.72            0.00          7.72         0.00         0.00
     62.6        7.67            0.00          7.67         0.00         0.00
     59.3        7.61            0.00          7.61         0.00         0.00
     56.0        7.54            0.00          7.54         0.00         0.00
     52.6        7.48            0.00          7.48         0.00         0.00
     49.3        7.41            0.00          7.41         0.00         0.00
     46.0        7.34            0.00          7.34         0.00         0.00
     42.6        7.26            0.00          7.26         0.00         0.00
     39.3        7.17            0.00          7.17         0.00         0.00
     36.0        7.25            0.00          7.25         0.00         0.00
     32.6        7.16            0.00          7.16         0.00         0.00
     29.3        7.06            0.00          7.06         0.00         0.00


Harvested Random Seeds after Generation of the Random Numbers:

    160894500 K1
            0 K2


Scaling statistics from the hub grid point:

   Cross-Component  Scaling Factor
   ---------------  --------------
   u'w'               -0.13585E+00
   u'v'                0.00000E+00
   v'w'                0.00000E+00


Hub-Height Simulated Turbulence Statistical Summary:

   Type of Wind        Min (m/s)   Mean (m/s)    Max (m/s)  Sigma (m/s)       TI (%)
   ----------------    ---------   ----------    ---------  -----------       ------
   Longitudinal (u)         5.48         8.00        10.47        0.860       10.755
   Lateral (v)             -2.24         0.00         2.03        0.701        8.767
   Vertical (w)            -1.64         0.00         2.00        0.524        6.555
   U component              5.48         8.00        10.47        0.860       10.755
   V component             -2.24         0.00         2.03        0.701        8.767
   W component             -1.64         0.00         2.00        0.524        6.555
   Horizontal (U&V)         5.48         8.03        10.48        0.859       10.692
   Total                    5.49         8.05        10.48        0.857       10.653

                       Min Reynolds     Mean Reynolds    Max Reynolds    Correlation
   Product             Stress (m/s)^2   Stress (m/s)^2   Stress (m/s)^2  Coefficient
   ----------------    --------------   --------------   --------------  -----------
   u'w'                     -2.532            -0.117             1.662        -0.258
   u'v'                     -3.695             0.025             2.985         0.042
   v'w'                     -2.141             0.003             1.687         0.008


   Friction Velocity (Ustar)  =      0.341 m/s
   Maximum Instantaneous TKE  =      4.085 (m/s)^2
   Maximum Instantaneous CTKE =      2.107 (m/s)^2


Grid Point Variance Summary:

   Y-coord  -45.00  -42.00  -39.00  -36.00  -33.00  -30.00  -27.00  -24.00  -21.00  -18.00  -15.00  -12.00   -9.00   -6.00   -3.00    0.00    3.00    6.00    9.00   12.00   15.00   18.00   21.00   24.00   27.00   30.00   33.00   36.00   39.00   42.00   45.00

   Height   Standard deviation at grid points for the u component:
   129.29    0.931   0.888   0.865   0.860   0.860   0.857   0.854   0.852   0.869   0.863   0.857   0.873   0.884   0.893   0.888   0.846   0.851   0.838   0.808   0.784   0.813   0.752   0.683   0.689   0.686   0.652   0.639   0.633   0.606   0.633   0.650
   125.95    0.912   0.880   0.906   0.859   0.866   0.833   0.881   0.888   0.884   0.924   0.880   0.852   0.866   0.877   0.885   0.899   0.862   0.827   0.826   0.800   0.783   0.743   0.711   0.688   0.707   0.729   0.663   0.657   0.640   0.642   0.637
   122.62    0.888   0.913   0.879   0.864   0.858   0.876   0.883   0.881   0.882   0.906   0.889   0.911   0.884   0.858   0.844   0.834   0.822   0.847   0.816   0.776   0.788   0.771   0.730   0.710   0.735   0.723   0.724   0.661   0.667   0.658   0.693
   119.29    0.891   0.915   0.905   0.911   0.914   0.919   0.881   0.890   0.893   0.900   0.883   0.906   0.890   0.865   0.818   0.853   0.813   0.835   0.808   0.798   0.773   0.749   0.731   0.732   0.738   0.733   0.718   0.697   0.674   0.674   0.689
   115.95    0.899   0.896   0.881   0.910   0.898   0.885   0.914   0.923   0.885   0.890   0.887   0.896   0.860   0.881   0.851   0.830   0.814   0.827   0.784   0.772   0.750   0.747   0.727   0.741   0.753   0.730   0.693   0.691   0.682   0.659   0.686
   112.62    0.926   0.927   0.914   0.916   0.940   0.907   0.883   0.881   0.878   0.920   0.889   0.862   0.888   0.852   0.848   0.825   0.816   0.820   0.801   0.779   0.775   0.764   0.731   0.715   0.740   0.732   0.707   0.689   0.678   0.685   0.665
   109.29    0.953   0.952   0.957   0.962   0.967   0.920   0.895   0.862   0.904   0.915   0.905   0.912   0.886   0.895   0.866   0.868   0.804   0.800   0.806   0.783   0.818   0.757   0.773   0.725   0.730   0.743   0.726   0.733   0.701   0.696   0.675
   105.95    1.027   1.021   1.001   0.969   0.979   0.918   0.910   0.877   0.913   0.882   0.938   0.925   0.898   0.906   0.883   0.832   0.791   0.745   0.761   0.788   0.779   0.791   0.743   0.710   0.705   0.721   0.725   0.701   0.727   0.705   0.686
   102.62    0.968   0.996   0.981   0.977   0.941   0.926   0.918   0.900   0.901   0.903   0.889   0.918   0.900   0.927   0.892   0.869   0.842   0.804   0.756   0.763   0.747   0.774   0.750   0.718   0.699   0.723   0.726   0.754   0.718   0.702   0.717
    99.29    0.965   0.966   0.958   0.941   0.902   0.945   0.929   0.955   0.898   0.918   0.878   0.871   0.863   0.865   0.844   0.822   0.827   0.823   0.797   0.779   0.757   0.767   0.744   0.715   0.742   0.737   0.768   0.771   0.738   0.721   0.749
    95.95    0.956   0.970   0.940   0.920   0.917   0.927   0.942   0.932   0.919   0.903   0.871   0.883   0.883   0.827   0.839   0.813   0.831   0.793   0.782   0.801   0.828   0.772   0.764   0.760   0.723   0.752   0.759   0.780   0.770   0.769   0.755
    92.62    0.977   0.980   0.964   0.924   0.907   0.931   0.937   0.913   0.903   0.890   0.878   0.868   0.841   0.871   0.835   0.826   0.838   0.825   0.837   0.805   0.837   0.793   0.782   0.740   0.733   0.763   0.750   0.752   0.788   0.787   0.807
    89.29    0.949   0.947   0.948   0.941   0.891   0.904   0.921   0.923   0.934   0.906   0.907   0.883   0.863   0.854   0.828   0.866   0.846   0.850   0.839   0.794   0.854   0.819   0.789   0.805   0.745   0.790   0.784   0.807   0.831   0.798   0.801
    85.95    0.927   0.947   0.939   0.956   0.892   0.921   0.928   0.940   0.942   0.935   0.944   0.901   0.869   0.818   0.868   0.859   0.862   0.875   0.827   0.809   0.841   0.817   0.791   0.778   0.786   0.817   0.820   0.827   0.853   0.799   0.762
    82.62    0.924   0.947   0.948   0.930   0.901   0.924   0.929   0.952   0.951   0.949   0.927   0.916   0.887   0.857   0.846   0.847   0.861   0.841   0.836   0.879   0.841   0.802   0.804   0.773   0.819   0.875   0.841   0.835   0.843   0.811   0.796
    79.29    0.942   0.960   0.974   0.961   0.940   0.942   0.964   0.980   0.972   0.930   0.918   0.934   0.874   0.887   0.882   0.828   0.833   0.824   0.862   0.864   0.825   0.826   0.786   0.806   0.840   0.870   0.870   0.875   0.861   0.822   0.829
    75.95    1.001   0.990   1.000   1.026   0.985   1.024   0.997   0.951   0.960   0.941   0.921   0.910   0.925   0.917   0.867   0.843   0.845   0.863   0.822   0.839   0.801   0.783   0.787   0.802   0.830   0.873   0.868   0.873   0.838   0.844   0.821
    72.62    0.991   1.003   1.007   1.000   1.020   0.994   1.023   1.028   0.956   0.950   0.947   0.924   0.897   0.873   0.865   0.825   0.829   0.845   0.843   0.826   0.815   0.767   0.829   0.832   0.852   0.859   0.861   0.844   0.866   0.856   0.829
    69.29    1.014   1.018   1.020   1.012   0.997   1.004   1.000   1.011   0.949   0.951   0.975   0.907   0.861   0.828   0.816   0.847   0.866   0.859   0.865   0.857   0.832   0.824   0.846   0.839   0.868   0.863   0.857   0.871   0.873   0.877   0.881
    65.95    0.992   0.983   0.993   1.003   1.005   0.981   0.997   0.975   0.948   0.962   0.966   0.919   0.894   0.828   0.838   0.850   0.900   0.907   0.871   0.882   0.861   0.823   0.847   0.846   0.879   0.871   0.859   0.847   0.851   0.887   0.883
    62.62    0.979   0.989   1.012   0.987   0.961   0.969   1.002   1.006   1.004   0.977   0.959   0.928   0.885   0.887   0.870   0.893   0.929   0.923   0.915   0.897   0.841   0.841   0.864   0.883   0.897   0.924   0.916   0.853   0.845   0.875   0.913
    59.29    0.928   0.957   0.978   0.991   0.973   0.930   0.922   0.968   1.001   0.979   0.978   0.938   0.917   0.883   0.889   0.872   0.901   0.882   0.887   0.886   0.872   0.882   0.854   0.866   0.885   0.901   0.896   0.876   0.868   0.860   0.874
    55.95    0.920   0.947   0.946   0.957   0.969   0.936   0.958   1.021   0.975   0.994   0.983   0.975   0.962   0.906   0.894   0.879   0.885   0.877   0.857   0.845   0.847   0.849   0.838   0.881   0.854   0.811   0.861   0.874   0.889   0.888   0.874
    52.62    0.904   0.902   0.901   0.902   0.942   0.956   0.981   1.013   0.992   1.013   0.985   0.970   0.950   0.945   0.933   0.895   0.871   0.890   0.874   0.870   0.852   0.827   0.844   0.840   0.858   0.868   0.844   0.860   0.883   0.848   0.859
    49.29    0.888   0.876   0.845   0.853   0.894   0.958   0.983   0.968   0.969   0.974   0.951   0.906   0.925   0.906   0.875   0.898   0.895   0.875   0.858   0.881   0.870   0.823   0.836   0.871   0.830   0.839   0.831   0.840   0.865   0.897   0.914
    45.95    0.869   0.837   0.808   0.818   0.854   0.925   0.926   0.971   0.932   0.930   0.935   0.917   0.884   0.879   0.859   0.902   0.890   0.880   0.879   0.863   0.855   0.878   0.861   0.844   0.833   0.852   0.899   0.876   0.919   0.922   0.920
    42.62    0.803   0.831   0.818   0.827   0.865   0.880   0.933   0.905   0.918   0.904   0.919   0.882   0.899   0.880   0.896   0.913   0.875   0.897   0.901   0.885   0.875   0.851   0.879   0.856   0.865   0.862   0.863   0.895   0.902   0.905   0.920
    39.29    0.814   0.825   0.804   0.837   0.846   0.900   0.904   0.865   0.883   0.922   0.938   0.906   0.863   0.878   0.908   0.923   0.903   0.938   0.914   0.877   0.882   0.867   0.859   0.835   0.790   0.833   0.821   0.866   0.910   0.904   0.908
    35.95    0.836   0.861   0.833   0.882   0.924   0.898   0.860   0.866   0.871   0.893   0.911   0.929   0.917   0.914   0.919   0.968   0.944   0.908   0.898   0.864   0.863   0.845   0.854   0.838   0.810   0.820   0.824   0.873   0.896   0.888   0.897
    32.62    0.852   0.850   0.862   0.907   0.894   0.891   0.881   0.816   0.870   0.900   0.959   0.934   0.922   0.903   0.893   0.915   0.899   0.904   0.898   0.861   0.865   0.867   0.885   0.827   0.822   0.801   0.865   0.875   0.859   0.838   0.888
    29.29    0.875   0.853   0.893   0.869   0.877   0.882   0.902   0.877   0.873   0.928   0.946   0.952   0.916   0.880   0.879   0.876   0.880   0.886   0.897   0.856   0.848   0.864   0.863   0.804   0.790   0.853   0.850   0.851   0.838   0.830   0.850

   Height   Standard deviation at grid points for the v component:
   129.29    0.658   0.660   0.642   0.640   0.636   0.614   0.608   0.599   0.594   0.579   0.557   0.564   0.583   0.587   0.600   0.616   0.618   0.644   0.660   0.656   0.687   0.671   0.676   0.629   0.645   0.620   0.613   0.600   0.601   0.592   0.570
   125.95    0.672   0.635   0.646   0.641   0.619   0.603   0.588   0.594   0.585   0.579   0.568   0.559   0.584   0.592   0.599   0.615   0.607   0.638   0.628   0.669   0.671   0.708   0.672   0.668   0.636   0.628   0.595   0.575   0.591   0.598   0.596
   122.62    0.656   0.651   0.634   0.616   0.613   0.588   0.580   0.591   0.581   0.605   0.586   0.572   0.564   0.585   0.608   0.609   0.613   0.619   0.639   0.643   0.686   0.668   0.673   0.659   0.627   0.607   0.570   0.586   0.605   0.597   0.610
   119.29    0.646   0.646   0.630   0.619   0.620   0.617   0.577   0.578   0.594   0.622   0.598   0.593   0.574   0.570   0.600   0.600   0.643   0.630   0.621   0.632   0.644   0.670   0.641   0.648   0.624   0.607   0.591   0.612   0.624   0.620   0.612
   115.95    0.640   0.633   0.623   0.617   0.600   0.639   0.623   0.610   0.598   0.615   0.605   0.603   0.586   0.597   0.622   0.635   0.638   0.643   0.636   0.637   0.655   0.672   0.660   0.651   0.631   0.634   0.609   0.598   0.614   0.621   0.615
   112.62    0.636   0.638   0.613   0.628   0.619   0.635   0.625   0.632   0.628   0.632   0.608   0.623   0.612   0.627   0.610   0.630   0.640   0.648   0.638   0.643   0.638   0.626   0.615   0.634   0.638   0.647   0.628   0.624   0.634   0.616   0.619
   109.29    0.592   0.614   0.628   0.619   0.616   0.611   0.633   0.652   0.645   0.626   0.598   0.600   0.619   0.629   0.631   0.602   0.634   0.634   0.648   0.652   0.627   0.627   0.618   0.632   0.643   0.646   0.647   0.636   0.620   0.609   0.625
   105.95    0.577   0.589   0.608   0.618   0.633   0.628   0.655   0.674   0.676   0.652   0.617   0.621   0.602   0.622   0.637   0.630   0.623   0.617   0.633   0.637   0.619   0.627   0.627   0.650   0.644   0.635   0.642   0.636   0.625   0.611   0.628
   102.62    0.581   0.574   0.614   0.620   0.624   0.640   0.671   0.671   0.675   0.649   0.644   0.649   0.640   0.618   0.627   0.629   0.636   0.623   0.623   0.649   0.619   0.622   0.631   0.649   0.642   0.651   0.651   0.629   0.622   0.610   0.623
    99.29    0.579   0.603   0.614   0.620   0.619   0.638   0.634   0.670   0.683   0.678   0.652   0.657   0.658   0.652   0.645   0.661   0.635   0.639   0.615   0.645   0.633   0.632   0.647   0.644   0.654   0.658   0.648   0.625   0.626   0.610   0.635
    95.95    0.591   0.593   0.628   0.641   0.638   0.639   0.643   0.651   0.669   0.679   0.653   0.659   0.684   0.666   0.669   0.660   0.640   0.633   0.623   0.647   0.667   0.648   0.668   0.665   0.684   0.656   0.646   0.634   0.618   0.635   0.644
    92.62    0.587   0.604   0.620   0.646   0.647   0.645   0.652   0.624   0.660   0.694   0.667   0.648   0.657   0.663   0.674   0.676   0.678   0.669   0.656   0.638   0.676   0.648   0.650   0.677   0.690   0.671   0.635   0.625   0.644   0.648   0.642
    89.29    0.588   0.627   0.637   0.651   0.647   0.636   0.651   0.658   0.676   0.666   0.665   0.659   0.662   0.662   0.669   0.684   0.684   0.677   0.702   0.665   0.661   0.657   0.672   0.667   0.695   0.681   0.658   0.646   0.645   0.641   0.645
    85.95    0.607   0.629   0.644   0.628   0.644   0.645   0.644   0.640   0.685   0.665   0.666   0.686   0.667   0.652   0.677   0.702   0.668   0.702   0.689   0.676   0.666   0.671   0.675   0.670   0.683   0.657   0.645   0.645   0.651   0.649   0.643
    82.62    0.629   0.647   0.659   0.661   0.648   0.644   0.635   0.634   0.637   0.656   0.687   0.700   0.685   0.673   0.654   0.680   0.684   0.682   0.697   0.699   0.698   0.690   0.653   0.652   0.650   0.659   0.653   0.655   0.629   0.650   0.653
    79.29    0.641   0.650   0.665   0.667   0.691   0.667   0.639   0.622   0.623   0.623   0.667   0.681   0.703   0.674   0.668   0.670   0.685   0.694   0.704   0.688   0.675   0.667   0.625   0.634   0.632   0.652   0.627   0.647   0.641   0.651   0.643
    75.95    0.654   0.683   0.678   0.661   0.687   0.670   0.649   0.653   0.621   0.632   0.647   0.667   0.695   0.680   0.660   0.644   0.669   0.678   0.693   0.662   0.672   0.664   0.657   0.645   0.626   0.628   0.625   0.636   0.621   0.636   0.651
    72.62    0.676   0.687   0.659   0.684   0.700   0.682   0.657   0.643   0.641   0.649   0.645   0.660   0.673   0.686   0.668   0.665   0.633   0.685   0.672   0.686   0.677   0.667   0.656   0.621   0.614   0.611   0.649   0.633   0.620   0.644   0.643
    69.29    0.667   0.678   0.677   0.675   0.702   0.671   0.677   0.656   0.650   0.668   0.663   0.670   0.678   0.676   0.677   0.681   0.657   0.672   0.687   0.715   0.691   0.679   0.664   0.631   0.621   0.612   0.622   0.652   0.634   0.634   0.633
    65.95    0.677   0.699   0.690   0.698   0.684   0.682   0.668   0.681   0.691   0.687   0.705   0.701   0.704   0.697   0.697   0.680   0.673   0.683   0.687   0.699   0.678   0.665   0.669   0.624   0.624   0.611   0.630   0.643   0.664   0.638   0.636
    62.62    0.685   0.683   0.682   0.685   0.680   0.664   0.690   0.703   0.714   0.687   0.713   0.719   0.692   0.715   0.705   0.685   0.670   0.679   0.661   0.676   0.684   0.657   0.665   0.637   0.657   0.644   0.634   0.628   0.644   0.647   0.621
    59.29    0.677   0.681   0.672   0.657   0.688   0.692   0.716   0.707   0.714   0.706   0.699   0.725   0.736   0.726   0.706   0.713   0.702   0.675   0.661   0.667   0.652   0.657   0.669   0.643   0.645   0.666   0.639   0.650   0.659   0.654   0.612
    55.95    0.686   0.655   0.651   0.641   0.667   0.701   0.715   0.718   0.732   0.707   0.734   0.741   0.746   0.730   0.730   0.710   0.680   0.669   0.665   0.645   0.643   0.625   0.628   0.652   0.649   0.659   0.679   0.651   0.649   0.641   0.614
    52.62    0.682   0.650   0.646   0.643   0.662   0.690   0.688   0.717   0.708   0.727   0.726   0.729   0.730   0.713   0.725   0.697   0.673   0.673   0.685   0.668   0.643   0.649   0.621   0.640   0.670   0.654   0.675   0.667   0.674   0.668   0.632
    49.29    0.681   0.672   0.648   0.649   0.649   0.656   0.674   0.674   0.690   0.700   0.698   0.719   0.718   0.722   0.707   0.702   0.693   0.692   0.682   0.681   0.665   0.663   0.624   0.640   0.638   0.639   0.653   0.670   0.664   0.661   0.637
    45.95    0.679   0.666   0.652   0.672   0.673   0.683   0.688   0.668   0.684   0.681   0.668   0.713   0.705   0.695   0.678   0.693   0.698   0.691   0.677   0.691   0.688   0.672   0.655   0.641   0.648   0.663   0.652   0.677   0.676   0.663   0.675
    42.62    0.677   0.644   0.664   0.647   0.654   0.666   0.677   0.687   0.700   0.683   0.671   0.704   0.705   0.689   0.692   0.689   0.694   0.688   0.677   0.696   0.684   0.688   0.663   0.646   0.666   0.673   0.691   0.655   0.672   0.676   0.673
    39.29    0.669   0.670   0.672   0.652   0.649   0.664   0.677   0.673   0.678   0.683   0.677   0.665   0.689   0.700   0.700   0.710   0.692   0.664   0.682   0.665   0.685   0.686   0.662   0.677   0.690   0.690   0.691   0.693   0.684   0.679   0.680
    35.95    0.669   0.670   0.677   0.662   0.671   0.679   0.689   0.689   0.672   0.662   0.676   0.683   0.671   0.670   0.683   0.663   0.697   0.688   0.686   0.699   0.696   0.688   0.655   0.647   0.650   0.681   0.677   0.672   0.675   0.665   0.677
    32.62    0.687   0.678   0.679   0.658   0.658   0.666   0.680   0.678   0.657   0.679   0.665   0.672   0.698   0.689   0.687   0.671   0.679   0.692   0.700   0.694   0.682   0.683   0.655   0.669   0.659   0.694   0.689   0.700   0.681   0.666   0.671
    29.29    0.673   0.701   0.693   0.700   0.681   0.669   0.680   0.678   0.694   0.684   0.680   0.700   0.713   0.708   0.703   0.712   0.702   0.706   0.733   0.715   0.683   0.682   0.670   0.670   0.681   0.690   0.707   0.672   0.676   0.687   0.682

   Height   Standard deviation at grid points for the w component:
   129.29    0.540   0.549   0.543   0.574   0.573   0.562   0.567   0.576   0.571   0.569   0.574   0.560   0.570   0.563   0.544   0.542   0.525   0.523   0.539   0.550   0.559   0.552   0.532   0.554   0.540   0.527   0.514   0.519   0.525   0.496   0.485
   125.95    0.523   0.536   0.548   0.570   0.568   0.558   0.562   0.579   0.579   0.577   0.566   0.548   0.556   0.560   0.550   0.546   0.543   0.534   0.522   0.538   0.556   0.545   0.543   0.528   0.530   0.532   0.520   0.531   0.538   0.528   0.498
   122.62    0.532   0.533   0.549   0.565   0.575   0.571   0.574   0.582   0.561   0.555   0.542   0.534   0.539   0.536   0.524   0.519   0.506   0.499   0.513   0.538   0.546   0.539   0.534   0.522   0.509   0.528   0.527   0.522   0.525   0.520   0.520
   119.29    0.563   0.558   0.557   0.570   0.574   0.578   0.577   0.585   0.567   0.550   0.553   0.554   0.533   0.537   0.529   0.523   0.522   0.521   0.507   0.530   0.514   0.524   0.521   0.529   0.535   0.546   0.538   0.524   0.510   0.518   0.516
   115.95    0.556   0.556   0.571   0.560   0.557   0.554   0.573   0.570   0.561   0.554   0.555   0.555   0.532   0.524   0.522   0.525   0.525   0.512   0.502   0.511   0.527   0.525   0.529   0.527   0.517   0.529   0.516   0.495   0.481   0.482   0.501
   112.62    0.560   0.559   0.557   0.559   0.546   0.562   0.562   0.557   0.555   0.560   0.552   0.553   0.537   0.517   0.511   0.522   0.517   0.519   0.508   0.511   0.502   0.518   0.516   0.509   0.522   0.513   0.508   0.490   0.483   0.469   0.477
   109.29    0.573   0.570   0.558   0.563   0.565   0.555   0.566   0.565   0.562   0.585   0.555   0.557   0.548   0.514   0.514   0.523   0.512   0.508   0.529   0.534   0.522   0.520   0.514   0.507   0.511   0.515   0.490   0.478   0.485   0.474   0.476
   105.95    0.572   0.558   0.552   0.551   0.562   0.559   0.564   0.558   0.532   0.562   0.563   0.557   0.541   0.521   0.515   0.515   0.515   0.538   0.537   0.537   0.518   0.525   0.520   0.495   0.508   0.500   0.503   0.486   0.486   0.490   0.500
   102.62    0.566   0.558   0.547   0.557   0.564   0.572   0.574   0.573   0.561   0.560   0.551   0.542   0.544   0.531   0.536   0.534   0.536   0.523   0.525   0.520   0.527   0.519   0.497   0.514   0.516   0.502   0.495   0.511   0.503   0.505   0.504
    99.29    0.572   0.570   0.564   0.565   0.562   0.576   0.584   0.583   0.569   0.568   0.570   0.552   0.563   0.547   0.544   0.537   0.535   0.518   0.522   0.522   0.520   0.519   0.519   0.531   0.524   0.514   0.496   0.497   0.502   0.497   0.498
    95.95    0.560   0.567   0.560   0.565   0.578   0.580   0.575   0.576   0.577   0.587   0.562   0.541   0.530   0.554   0.559   0.544   0.535   0.539   0.511   0.510   0.525   0.519   0.517   0.515   0.534   0.525   0.501   0.504   0.497   0.507   0.490
    92.62    0.574   0.570   0.578   0.589   0.583   0.581   0.588   0.608   0.597   0.592   0.579   0.552   0.545   0.544   0.550   0.532   0.547   0.518   0.533   0.525   0.531   0.518   0.499   0.514   0.522   0.531   0.530   0.497   0.513   0.499   0.495
    89.29    0.559   0.576   0.583   0.594   0.575   0.579   0.592   0.587   0.597   0.601   0.567   0.568   0.547   0.557   0.541   0.540   0.543   0.532   0.534   0.525   0.523   0.500   0.507   0.517   0.523   0.532   0.513   0.499   0.494   0.502   0.496
    85.95    0.564   0.553   0.574   0.593   0.576   0.583   0.585   0.579   0.588   0.577   0.561   0.551   0.560   0.549   0.527   0.521   0.535   0.527   0.520   0.514   0.522   0.518   0.524   0.518   0.527   0.500   0.506   0.508   0.486   0.484   0.497
    82.62    0.548   0.556   0.568   0.574   0.582   0.560   0.553   0.564   0.566   0.564   0.554   0.535   0.536   0.531   0.546   0.525   0.531   0.513   0.537   0.532   0.516   0.512   0.512   0.524   0.523   0.512   0.519   0.530   0.501   0.498   0.506
    79.29    0.583   0.562   0.565   0.575   0.567   0.553   0.552   0.560   0.556   0.547   0.554   0.548   0.541   0.567   0.555   0.545   0.525   0.536   0.531   0.546   0.547   0.523   0.517   0.523   0.519   0.529   0.532   0.535   0.513   0.507   0.502
    75.95    0.581   0.573   0.570   0.571   0.574   0.578   0.581   0.587   0.569   0.560   0.546   0.545   0.549   0.568   0.569   0.561   0.557   0.560   0.549   0.557   0.554   0.531   0.529   0.523   0.514   0.529   0.533   0.523   0.502   0.493   0.502
    72.62    0.562   0.569   0.566   0.572   0.590   0.593   0.597   0.604   0.586   0.559   0.578   0.574   0.561   0.555   0.547   0.551   0.554   0.561   0.576   0.563   0.552   0.529   0.519   0.519   0.520   0.529   0.541   0.525   0.501   0.506   0.502
    69.29    0.565   0.583   0.591   0.571   0.576   0.571   0.579   0.589   0.581   0.565   0.582   0.575   0.541   0.527   0.551   0.567   0.582   0.587   0.563   0.551   0.556   0.540   0.527   0.521   0.512   0.523   0.515   0.517   0.513   0.494   0.493
    65.95    0.553   0.567   0.574   0.558   0.561   0.567   0.571   0.570   0.564   0.549   0.560   0.557   0.564   0.550   0.560   0.562   0.582   0.570   0.575   0.573   0.570   0.554   0.532   0.521   0.527   0.515   0.518   0.520   0.500   0.502   0.512
    62.62    0.548   0.570   0.571   0.557   0.565   0.562   0.563   0.560   0.560   0.562   0.564   0.567   0.547   0.560   0.580   0.568   0.567   0.575   0.558   0.569   0.565   0.561   0.542   0.538   0.535   0.525   0.534   0.518   0.520   0.523   0.538
    59.29    0.548   0.551   0.552   0.554   0.572   0.576   0.554   0.553   0.572   0.575   0.576   0.559   0.549   0.546   0.573   0.571   0.560   0.561   0.566   0.561   0.554   0.558   0.540   0.548   0.545   0.536   0.537   0.530   0.525   0.552   0.534
    55.95    0.559   0.551   0.553   0.552   0.568   0.558   0.562   0.569   0.562   0.572   0.567   0.550   0.558   0.566   0.577   0.569   0.565   0.573   0.575   0.563   0.558   0.562   0.563   0.570   0.569   0.543   0.525   0.544   0.532   0.531   0.527
    52.62    0.563   0.570   0.560   0.560   0.548   0.532   0.544   0.553   0.562   0.564   0.555   0.564   0.558   0.559   0.565   0.559   0.555   0.534   0.554   0.562   0.560   0.578   0.595   0.600   0.588   0.578   0.538   0.523   0.525   0.531   0.535
    49.29    0.551   0.555   0.547   0.540   0.551   0.546   0.549   0.547   0.539   0.563   0.563   0.561   0.553   0.568   0.556   0.556   0.543   0.558   0.574   0.573   0.590   0.601   0.596   0.598   0.585   0.591   0.577   0.555   0.529   0.529   0.553
    45.95    0.546   0.541   0.543   0.538   0.535   0.550   0.543   0.541   0.539   0.553   0.568   0.563   0.559   0.556   0.574   0.574   0.557   0.574   0.581   0.579   0.574   0.586   0.591   0.605   0.587   0.594   0.574   0.571   0.545   0.544   0.541
    42.62    0.560   0.535   0.531   0.524   0.535   0.538   0.553   0.556   0.567   0.567   0.583   0.543   0.568   0.561   0.577   0.574   0.562   0.572   0.586   0.589   0.577   0.589   0.575   0.576   0.598   0.590   0.588   0.562   0.558   0.558   0.554
    39.29    0.561   0.542   0.541   0.532   0.542   0.544   0.551   0.560   0.566   0.570   0.570   0.557   0.563   0.570   0.583   0.567   0.557   0.587   0.586   0.575   0.566   0.575   0.587   0.580   0.560   0.561   0.552   0.550   0.544   0.570   0.560
    35.95    0.551   0.536   0.521   0.515   0.543   0.548   0.548   0.547   0.558   0.570   0.563   0.553   0.552   0.561   0.574   0.570   0.554   0.551   0.568   0.573   0.560   0.546   0.573   0.576   0.558   0.551   0.523   0.525   0.535   0.556   0.569
    32.62    0.542   0.531   0.517   0.520   0.544   0.545   0.552   0.548   0.558   0.569   0.581   0.573   0.565   0.557   0.569   0.564   0.565   0.554   0.548   0.559   0.549   0.540   0.566   0.557   0.537   0.538   0.539   0.538   0.534   0.540   0.556
    29.29    0.548   0.541   0.542   0.549   0.548   0.533   0.532   0.557   0.565   0.560   0.557   0.565   0.567   0.562   0.576   0.556   0.553   0.557   0.552   0.561   0.544   0.549   0.559   0.544   0.528   0.519   0.535   0.535   0.519   0.523   0.537

   Mean standard deviation across all grid points:
      u component:    0.865 m/s
      v component:    0.655 m/s
      w component:    0.547 m/s


U-component (X) statistics from the interpolated hub point:

   Mean =   7.9998 m/s
   TI   =  10.4011 %

Nyquist frequency of turbulent wind field =        10.000 Hz


Processing complete.  621.48 CPU seconds used.
