
This summary information was generated by ElastoDyn on 17-Oct-2023 at 15:39:53.


Turbine features:

            Upwind, 1-bladed rotor with rigid hub.
            The model has 0 of 18 DOFs active (enabled) at start-up.
 Disabled   Platform horizontal surge translation DOF 
 Disabled   Platform horizontal sway translation DOF 
 Disabled   Platform vertical heave translation DOF 
 Disabled   Platform roll tilt rotation DOF 
 Disabled   Platform pitch tilt rotation DOF 
 Disabled   Platform yaw rotation DOF 
 Disabled   1st tower fore-aft bending mode DOF 
 Disabled   1st tower side-to-side bending mode DOF 
 Disabled   2nd tower fore-aft bending mode DOF 
 Disabled   2nd tower side-to-side bending mode DOF 
 Disabled   Nacelle yaw DOF 
 Disabled   Rotor-furl DOF 
 Disabled   Variable speed generator DOF 
 Disabled   Drivetrain rotational-flexibility DOF 
 Disabled   Tail-furl DOF 
 Disabled   1st flapwise bending-mode DOF of blade 1 
 Disabled   1st edgewise bending-mode DOF of blade 1 
 Disabled   2nd flapwise bending-mode DOF of blade 1 


Time steps:

    Structural            (s)        0.01000000


Some calculated parameters:

    Hub-Height            (m)            87.600
    Flexible Tower Length (m)            87.600
    Flexible Blade Length (m)               N/A


Rotor mass properties:

    Rotor Mass            (kg)        56780.000
    Rotor Inertia         (kg-m^2)   115926.000
                                        Blade 1
                                        -------
    Mass                  (kg)              N/A
    Second Mass Moment    (kg-m^2)          N/A
    First Mass Moment     (kg-m)            N/A
    Center of Mass        (m)               N/A


Additional mass properties:

    Tower-top Mass        (kg)       296780.000
    Tower Mass            (kg)       347460.250
    Platform Mass         (kg)      5452000.000
    Mass Incl. Platform   (kg)      6096240.000


Interpolated tower properties:

Node  TwFract   HNodes  DHNodes  TMassDen    FAStiff    SSStiff
 (-)      (-)      (m)      (m)    (kg/m)     (Nm^2)     (Nm^2)
   1    0.025    2.190    4.380  5501.260  5.945E+11  5.945E+11
   2    0.075    6.570    4.380  5322.040  5.547E+11  5.547E+11
   3    0.125   10.950    4.380  5145.763  5.169E+11  5.169E+11
   4    0.175   15.330    4.380  4972.427  4.812E+11  4.812E+11
   5    0.225   19.710    4.380  4802.038  4.472E+11  4.472E+11
   6    0.275   24.090    4.380  4634.593  4.152E+11  4.152E+11
   7    0.325   28.470    4.380  4470.090  3.848E+11  3.848E+11
   8    0.375   32.850    4.380  4308.530  3.562E+11  3.562E+11
   9    0.425   37.230    4.380  4149.915  3.292E+11  3.292E+11
  10    0.475   41.610    4.380  3994.245  3.037E+11  3.037E+11
  11    0.525   45.990    4.380  3841.515  2.798E+11  2.798E+11
  12    0.575   50.370    4.380  3691.725  2.573E+11  2.573E+11
  13    0.625   54.750    4.380  3544.880  2.361E+11  2.361E+11
  14    0.675   59.130    4.380  3400.980  2.163E+11  2.163E+11
  15    0.725   63.510    4.380  3260.025  1.978E+11  1.978E+11
  16    0.775   67.890    4.380  3122.015  1.805E+11  1.805E+11
  17    0.825   72.270    4.380  2986.945  1.643E+11  1.643E+11
  18    0.875   76.650    4.380  2854.815  1.493E+11  1.493E+11
  19    0.925   81.030    4.380  2725.630  1.353E+11  1.353E+11
  20    0.975   85.410    4.380  2599.390  1.223E+11  1.223E+11


Requested Outputs:


 Col   Parameter            Units               
 ---   ---------------      ---------------     
   0   Time                 (s)                 
   1   BldPitch1            (deg)               
   2   Azimuth              (deg)               
   3   RotSpeed             (rpm)               
   4   GenSpeed             (rpm)               
   5   NacYaw               (deg)               
   6   NcIMUTAxs            (m/s^2)             
   7   NcIMUTAys            (m/s^2)             
   8   NcIMUTAzs            (m/s^2)             
   9   TTDspFA              (m)                 
  10   TTDspSS              (m)                 
  11   TTDspTwst            (deg)               
  12   PtfmSurge            (m)                 
  13   PtfmSway             (m)                 
  14   PtfmHeave            (m)                 
  15   PtfmRoll             (deg)               
  16   PtfmPitch            (deg)               
  17   PtfmYaw              (deg)               
  18   PtfmTAxt             (m/s^2)             
  19   PtfmTAyt             (m/s^2)             
  20   PtfmTAzt             (m/s^2)             
  21   RotThrust            (kN)                
  22   LSSGagFya            (kN)                
  23   LSSGagFza            (kN)                
  24   RotTorq              (kN-m)              
  25   LSSGagMya            (kN-m)              
  26   LSSGagMza            (kN-m)              
  27   YawBrFxp             (kN)                
  28   YawBrFyp             (kN)                
  29   YawBrFzp             (kN)                
  30   YawBrMxp             (kN-m)              
  31   YawBrMyp             (kN-m)              
  32   YawBrMzp             (kN-m)              
  33   TwrBsFxt             (kN)                
  34   TwrBsFyt             (kN)                
  35   TwrBsFzt             (kN)                
  36   TwrBsMxt             (kN-m)              
  37   TwrBsMyt             (kN-m)              
  38   TwrBsMzt             (kN-m)              
  39   TwHt1MLxt            (kN-m)              
  40   TwHt1MLyt            (kN-m)              
  41   TwHt1MLzt            (kN-m)              
